131
	Energy:    -300.2739670
H         -2.57417        8.93893       -1.02944
O         -2.24641        9.75711       -0.61451
P         -0.67429        9.42454       -0.49676
O          0.09572       10.70440       -0.61852
O         -0.51961        8.26926       -1.44507
O         -0.67071        8.85406        1.00853
C         -0.82368        9.76935        2.07573
C         -0.48807        9.09721        3.40898
O         -1.45970        8.06295        3.69180
C          0.87607        8.42618        3.42574
O          1.30006        8.40371        4.78449
C          0.57320        7.03160        2.88633
O          1.50550        6.01464        3.23066
C         -0.83975        6.77466        3.43897
N         -1.76864        6.03439        2.59748
C         -1.73024        5.86391        1.23461
N         -2.80531        5.25414        0.77020
C         -3.59086        5.05671        1.87658
C         -4.86413        4.48180        2.01866
N         -5.61138        4.04146        0.92465
N         -5.36443        4.30570        3.26140
C         -4.62557        4.75642        4.30333
N         -3.42466        5.36232        4.28331
C         -2.95334        5.48020        3.02998
H         -0.77969        6.23130        4.39154
H          0.59165        7.06765        1.79813
H          1.60936        8.97439        2.82552
H         -0.57834        9.83925        4.21068
H         -0.16304       10.62859        1.92919
H         -1.86370       10.10940        2.08898
H         -5.05674        4.60291        5.28828
H         -0.91453        6.21617        0.61277
H         -6.18903        3.25370        1.17759
H         -5.01874        3.94778        0.10307
H          2.39796        6.45276        3.27087
P          2.86795        8.09979        5.04663
O          3.42829        9.19759        5.90924
O          3.48771        7.68320        3.73396
O          2.67478        6.75915        5.90792
C          2.24548        6.81518        7.24649
C          2.59641        5.49209        7.93473
O          1.61657        4.48455        7.58138
C          3.95654        4.95018        7.51717
O          4.45717        4.17270        8.60422
C          3.59447        4.09262        6.30759
O          4.60674        3.17588        5.93132
C          2.25485        3.46570        6.76082
N          1.26211        3.05053        5.75906
C          0.08195        2.44857        6.21657
O         -0.08384        2.11554        7.39043
N         -0.94638        2.23196        5.31380
C         -0.73571        2.44307        4.05198
N         -1.80283        2.27706        3.20250
C          0.55937        2.87606        3.50949
C          1.49333        3.17726        4.40831
H          2.45009        2.59492        7.40143
H          3.44929        4.73454        5.43873
H          4.67670        5.74351        7.29266
H          2.51969        5.62437        9.01934
H          2.75362        7.63355        7.76352
H          1.16492        6.98718        7.26310
H          0.71978        2.96317        2.44611
H          2.46559        3.51901        4.07192
H         -2.67290        2.39627        3.70820
H         -1.76103        2.85268        2.36797
H          5.47579        3.60893        6.14326
P          6.01225        3.72472        8.55062
O          6.65510        4.07223        9.86747
O          6.60660        4.13504        7.22497
O          5.77457        2.12691        8.47809
C          5.31113        1.46367        9.63497
C          5.60481       -0.03617        9.51358
O          4.59543       -0.65707        8.67454
C          6.97084       -0.31391        8.88703
O          7.53167       -1.50758        9.43770
C          6.63311       -0.46904        7.40808
O          7.57549       -1.25216        6.67770
C          5.20756       -1.06028        7.42693
N          4.31533       -0.68361        6.33118
C          4.49428        0.36354        5.45964
N          3.52472        0.47969        4.57720
C          2.67183       -0.52738        4.89166
C          1.43948       -0.90742        4.24777
O          0.90508       -0.35859        3.28441
N          0.89907       -2.05510        4.79703
C          1.51805       -2.81377        5.76532
N          0.88662       -3.97710        6.07979
N          2.63373       -2.48997        6.36372
C          3.16151       -1.31815        5.91545
H          5.25083       -2.15655        7.41789
H          6.65816        0.51912        6.95098
H          7.66510        0.51143        9.07661
H          5.50842       -0.49457       10.50370
H          5.82760        1.85371       10.51680
H          4.23674        1.64507        9.73653
H          0.06274       -2.36960        4.34121
H          5.34640        1.02649        5.49918
H         -0.12110       -3.90723        6.11242
H          1.27780       -4.36096        6.93460
H          8.45770       -0.97131        7.02446
P          9.13825       -1.70123        9.26897
O          9.73566       -2.17620       10.56713
O          9.71422       -0.57367        8.45339
O          9.12919       -2.94506        8.23947
C          8.68791       -4.19297        8.71175
C          8.88128       -5.22085        7.60158
O          7.75878       -5.12290        6.69415
C         10.15338       -5.01059        6.77578
O         10.71131       -6.27813        6.37089
C          9.65975       -4.27095        5.53739
O         10.51929       -4.54460        4.41444
C          8.24598       -4.85321        5.37135
N          7.23160       -4.08820        4.64347
C          6.00435       -4.72567        4.45570
O          5.80138       -5.92787        4.63177
N          4.99160       -3.93751        3.97793
C          5.17318       -2.75393        3.33157
O          4.35998       -2.31585        2.52736
C          6.45938       -2.09452        3.58571
C          7.41373       -2.78172        4.22132
H          8.32701       -5.82070        4.85686
H          9.66633       -3.19634        5.73540
H         10.95042       -4.47806        7.30448
H          8.84098       -6.22421        8.03681
H          9.28257       -4.47762        9.58396
H          7.63340       -4.11709        8.99610
H          4.11124       -4.39435        3.81722
H          6.57459       -1.06678        3.26501
H          8.35453       -2.28567        4.43073
H         10.06883       -4.16470        3.63806
H         11.25243       -6.04465        5.58854
