259
	Energy:    -188.8870886
H         -2.49827        8.93016       -0.91025
O         -2.11851        9.75397       -0.55422
P         -0.58068        9.30214       -0.39135
O          0.29071       10.51661       -0.49016
O         -0.49430        8.13144       -1.32785
O         -0.67978        8.74818        1.11464
C         -0.81853        9.67606        2.17024
C         -0.45091        9.01234        3.49271
O         -1.41643        7.98657        3.82275
C          0.91178        8.34705        3.45091
O          1.41192        8.44159        4.77358
C          0.58617        6.93202        2.97624
O          1.50587        5.91719        3.33977
C         -0.83297        6.69104        3.52460
N         -1.78604        6.00808        2.65406
C         -1.73663        5.86922        1.28655
N         -2.82862        5.32009        0.78886
C         -3.62309        5.09458        1.87999
C         -4.89911        4.51757        1.98307
N         -5.62800        4.11709        0.85870
N         -5.40934        4.28321        3.21128
C         -4.67595        4.68429        4.27813
N         -3.47729        5.29789        4.29652
C         -2.99028        5.46669        3.05464
H         -0.79138        6.10987        4.45569
H          0.60550        6.92972        1.88780
H          1.60462        8.86374        2.77839
H         -0.50863        9.76129        4.29133
H         -0.16371       10.53673        2.00769
H         -1.85936       10.01005        2.20299
H         -5.10886        4.47183        5.25142
H         -0.89798        6.19716        0.68300
H         -6.16873        3.29085        1.06854
H         -5.01236        4.07056        0.04844
H          2.41252        6.32520        3.32234
P          2.95427        8.02214        5.00267
O          3.60266        9.05814        5.87978
O          3.52325        7.58178        3.67653
O          2.63642        6.69584        5.84142
C          2.18200        6.78171        7.16863
C          2.55483        5.48756        7.87768
O          1.59362        4.45130        7.57072
C          3.92078        4.98784        7.44621
O          4.47115        4.37057        8.59663
C          3.56540        4.05833        6.28528
O          4.58415        3.14595        5.93326
C          2.22092        3.43514        6.73696
N          1.20924        3.05202        5.73066
C          0.00505        2.49056        6.17822
O         -0.18541        2.16740        7.35113
N         -1.02654        2.30913        5.26792
C         -0.80058        2.51005        4.00684
N         -1.86091        2.35648        3.14512
C          0.50666        2.91625        3.47529
C          1.44922        3.16921        4.38015
H          2.40572        2.55212        7.36281
H          3.41771        4.66361        5.39160
H          4.60098        5.79145        7.14390
H          2.49101        5.64547        8.95982
H          2.66874        7.61797        7.67687
H          1.09896        6.93155        7.16706
H          0.67729        3.00693        2.41379
H          2.43668        3.46755        4.04697
H         -2.73582        2.49045        3.63645
H         -1.79311        2.91161        2.29910
H          5.45619        3.58569        6.11516
P          5.98635        3.82534        8.50743
O          6.67958        4.15110        9.80407
O          6.56567        4.17890        7.16085
O          5.58590        2.26610        8.47753
C          5.06355        1.69148        9.65488
C          5.40791        0.21088        9.65382
O          4.44647       -0.51680        8.84628
C          6.79710       -0.03224        9.08386
O          7.36359       -1.09430        9.83085
C          6.50292       -0.32023        7.61270
O          7.44857       -1.13835        6.94919
C          5.08129       -0.92569        7.61013
N          4.19443       -0.56367        6.49926
C          4.43441        0.41195        5.56045
N          3.43578        0.59257        4.72274
C          2.53476       -0.35084        5.08338
C          1.29007       -0.68793        4.44197
O          0.77359       -0.13643        3.47209
N          0.71801       -1.81899        4.98321
C          1.33940       -2.62208        5.91013
N          0.73976       -3.83092        6.09427
N          2.44837       -2.32385        6.53431
C          3.00227       -1.15182        6.11133
H          5.13419       -2.02152        7.60349
H          6.53455        0.63222        7.08493
H          7.45006        0.84017        9.20323
H          5.30922       -0.17605       10.67419
H          5.51337        2.15797       10.53570
H          3.98103        1.84422        9.67861
H         -0.15251       -2.07744        4.55908
H          5.35282        0.97989        5.51621
H          0.34805       -4.20748        5.24110
H          1.41188       -4.47059        6.50962
H          8.33616       -0.90108        7.30899
P          8.94731       -1.36568        9.64110
O          9.52772       -1.81879       10.95518
O          9.55298       -0.28428        8.78914
O          8.77964       -2.63075        8.67249
C          8.16566       -3.78881        9.17702
C          8.51227       -4.93903        8.25384
O          7.53036       -5.04893        7.20135
C          9.87290       -4.75470        7.60715
O         10.42764       -6.05519        7.56571
C          9.50887       -4.10421        6.26731
O         10.49378       -4.21833        5.25489
C          8.15200       -4.75446        5.92458
N          7.14319       -4.01426        5.13964
C          5.91624       -4.63941        4.93555
O          5.64619       -5.81961        5.16576
N          4.92632       -3.84908        4.40793
C          5.12098       -2.65380        3.79292
O          4.30722       -2.20150        2.99359
C          6.41938       -2.02029        4.04157
C          7.36679       -2.73622        4.65606
H          8.31531       -5.70714        5.40346
H          9.38471       -3.03323        6.43536
H         10.55945       -4.13347        8.19234
H          8.43918       -5.87255        8.82180
H          8.56354       -3.99785       10.17264
H          7.08371       -3.63798        9.23514
H          4.05941       -4.31080        4.21133
H          6.57631       -1.00828        3.69136
H          8.34678       -2.29361        4.80382
H         11.37674       -4.18878        5.71106
P         11.93427       -6.20681        7.02170
O         12.63914       -7.25308        7.84402
O         12.51398       -4.84369        6.74317
O         11.49623       -6.83125        5.60990
C         10.98919       -8.14209        5.57120
C         11.37626       -8.73064        4.22610
O         10.43362       -8.29499        3.21592
C         12.76247       -8.27123        3.79604
O         13.32712       -9.34865        3.06844
C         12.45564       -7.00745        2.98846
O         13.43951       -6.63493        2.03769
C         11.07127       -7.29992        2.37614
N         10.14679       -6.17667        2.22904
C         10.40216       -4.85658        2.50881
N          9.40006       -4.05877        2.19559
C          8.43379       -4.90224        1.71408
C          7.16107       -4.62149        1.18519
N          6.67060       -3.32083        1.09055
N          6.43466       -5.63575        0.67427
C          7.00819       -6.86140        0.66667
N          8.20762       -7.25481        1.14663
C          8.88142       -6.21493        1.67465
H         11.18010       -7.72455        1.36996
H         12.40459       -6.16058        3.67291
H         13.41925       -8.06577        4.64909
H         11.29276       -9.82141        4.27572
H         11.42712       -8.74722        6.36907
H          9.90315       -8.10851        5.69595
H          6.42254       -7.63626        0.18320
H         11.33855       -4.51166        2.93049
H          5.66527       -3.26366        1.20929
H          7.20474       -2.68613        1.68153
H         14.31843       -6.81996        2.45893
P         14.88837       -9.22496        2.67275
O         15.53981      -10.57607        2.81856
O         15.46318       -7.96176        3.26006
O         14.64237       -8.92085        1.12065
C         14.08574       -9.90365        0.28783
C         14.46349       -9.55799       -1.14566
O         13.48304       -8.65418       -1.70653
C         15.81691       -8.87001       -1.23284
O         16.38162       -9.25643       -2.48048
C         15.42701       -7.39356       -1.13035
O         16.44016       -6.51835       -1.59044
C         14.08648       -7.34596       -1.90448
N         13.05830       -6.34545       -1.56475
C         11.88163       -6.32597       -2.32900
O         11.72511       -7.04569       -3.31685
N         10.86180       -5.46054       -1.97332
C         11.05480       -4.60215       -1.01968
N         10.02162       -3.75525       -0.70657
C         12.31900       -4.50581       -0.27356
C         13.26186       -5.38784       -0.59659
H         14.28895       -7.23486       -2.97778
H         15.27149       -7.13143       -0.08374
H         16.51182       -9.17840       -0.44419
H         14.41579      -10.46757       -1.75302
H         14.50132      -10.88028        0.54755
H         12.99967       -9.92011        0.42121
H         12.45812       -3.74180        0.47757
H         14.22023       -5.34410       -0.09247
H          9.11971       -4.13592       -0.96625
H         10.01177       -3.43586        0.26489
H         17.30920       -6.92630       -1.33986
P         17.91453       -8.84606       -2.78182
O         18.62138      -10.02215       -3.40788
O         18.48833       -8.08408       -1.61368
O         17.58765       -7.76237       -3.93074
C         17.09233       -8.22554       -5.16559
C         17.45985       -7.20437       -6.24045
O         16.43317       -6.17375       -6.26667
C         18.81359       -6.52753       -5.97845
O         19.44327       -6.23819       -7.22446
C         18.39355       -5.28675       -5.19172
O         19.23149       -4.14576       -5.30748
C         16.96577       -4.96790       -5.68130
N         16.03499       -4.43864       -4.68104
C         16.27488       -4.37671       -3.32827
N         15.29092       -3.84247       -2.64437
C         14.38190       -3.50748       -3.58847
C         13.13586       -2.81313       -3.41912
O         12.67856       -2.36140       -2.36701
N         12.51376       -2.56093       -4.61859
C         13.13495       -2.70611       -5.83810
N         12.49693       -2.08334       -6.86689
N         14.27965       -3.31435       -6.02935
C         14.84483       -3.75828       -4.86992
H         17.00458       -4.20961       -6.47335
H         18.41869       -5.56280       -4.13846
H         19.48437       -7.17979       -5.40807
H         17.42822       -7.69467       -7.21954
H         17.54290       -9.18946       -5.41649
H         16.00681       -8.34917       -5.08966
H         11.62962       -2.09505       -4.51715
H         17.18311       -4.72906       -2.86221
H         11.97567       -1.26420       -6.58065
H         13.14883       -1.89151       -7.61815
H         19.87345       -4.32354       -6.01606
P         21.03985       -5.93574       -7.24057
O         21.66865       -6.49834       -8.48811
O         21.65452       -6.09157       -5.88232
O         20.89817       -4.32966       -7.44496
C         20.44589       -3.89717       -8.71285
C         20.70337       -2.40311       -8.85385
O         19.60179       -1.70373       -8.23961
C         21.98538       -1.93177       -8.17223
O         22.59469       -0.85871       -8.91626
C         21.50618       -1.39873       -6.82686
O         22.38083       -0.34935       -6.36881
C         20.08512       -0.90029       -7.15277
N         19.06508       -0.88508       -6.10046
C         17.82414       -0.35126       -6.45641
O         17.61341        0.31197       -7.47326
N         16.80815       -0.55646       -5.56211
C         16.97663       -0.89948       -4.25614
O         16.13329       -0.64777       -3.40696
C         18.27929       -1.48333       -3.92615
C         19.24965       -1.44030       -4.84470
H         20.15443        0.13006       -7.52642
H         21.52622       -2.21279       -6.09938
H         22.74866       -2.71127       -8.07544
H         20.68477       -2.14038       -9.91665
H         20.99216       -4.42649       -9.49698
H         19.37724       -4.12139       -8.80267
H         15.91734       -0.14779       -5.78241
H         18.39174       -1.95893       -2.95894
H         20.19818       -1.90571       -4.60195
H         21.90898        0.08634       -5.63501
H         23.17415       -0.43245       -8.25163
